data/cases/case9.m
function mpc = case9
% MATPOWER case format for case9

mpc.version = '2';
mpc.baseMVA = 100.0;

% bus data
% bus_i type Pd Qd Gs Bs area Vm Va baseKV zone Vmax Vmin
mpc.bus = [
	1	3	0.0000	0.0000	0.0000	0.0000	1	1.0000	0.0000	345.0	1	2.0000	0.0000;
	2	2	0.0000	0.0000	0.0000	0.0000	1	1.0000	0.0000	345.0	1	2.0000	0.0000;
	3	2	0.0000	0.0000	0.0000	0.0000	1	1.0000	0.0000	345.0	1	2.0000	0.0000;
	4	1	0.0000	0.0000	0.0000	0.0000	1	1.0000	0.0000	345.0	1	2.0000	0.0000;
	5	1	90.0000	30.0000	0.0000	0.0000	1	1.0000	0.0000	345.0	1	2.0000	0.0000;
	6	1	0.0000	0.0000	0.0000	0.0000	1	1.0000	0.0000	345.0	1	2.0000	0.0000;
	7	1	100.0000	35.0000	0.0000	0.0000	1	1.0000	0.0000	345.0	1	2.0000	0.0000;
	8	1	0.0000	0.0000	0.0000	0.0000	1	1.0000	0.0000	345.0	1	2.0000	0.0000;
	9	1	125.0000	50.0000	0.0000	0.0000	1	1.0000	0.0000	345.0	1	2.0000	0.0000;
];

% generator data
% bus Pg Qg Qmax Qmin Vg mBase status Pmax Pmin
mpc.gen = [
	1	71.9547	24.0690	0.0000	0.0000	1.0000	100.0	1	1000000000.0000	-1000000000.0000;
	2	163.0000	14.4601	300.0000	-300.0000	1.0000	100.0	1	300.0000	10.0000;
	3	85.0000	-3.6490	300.0000	-300.0000	1.0000	100.0	1	270.0000	10.0000;
];

% branch data
% fbus tbus r x b rateA rateB rateC ratio angle status angmin angmax
mpc.branch = [
	1	4	0.000000	0.057600	0.000000	250.0	0.0	0.0	1.0000	0.0000	1	-360.0	360.0;
	4	5	0.017000	0.092000	0.158000	250.0	0.0	0.0	1.0000	0.0000	1	-360.0	360.0;
	5	6	0.039000	0.170000	0.358000	150.0	0.0	0.0	1.0000	0.0000	1	-360.0	360.0;
	3	6	0.000000	0.058600	0.000000	300.0	0.0	0.0	1.0000	0.0000	1	-360.0	360.0;
	6	7	0.011900	0.100800	0.209000	150.0	0.0	0.0	1.0000	0.0000	1	-360.0	360.0;
	7	8	0.008500	0.072000	0.149000	250.0	0.0	0.0	1.0000	0.0000	1	-360.0	360.0;
	8	2	0.000000	0.062500	0.000000	250.0	0.0	0.0	1.0000	0.0000	1	-360.0	360.0;
	8	9	0.032000	0.161000	0.306000	250.0	0.0	0.0	1.0000	0.0000	1	-360.0	360.0;
	9	4	0.010000	0.085000	0.176000	250.0	0.0	0.0	1.0000	0.0000	1	-360.0	360.0;
];
